simple_test.fds
Generated by PyroSim 2025.1.0826
2025. 11. 25. 오전 7:49:09

&HEAD CHID='simple_test', TITLE='Simple Fire Test for GPU Solver'/
&TIME T_END=20.0/
&DUMP DT_RESTART=300.0, DT_SL3D=0.25/
&MISC CFL_MAX=0.8, SIMULATION_MODE='LES'/
&PRES SOLVER='GPU'/

&MESH ID='Mesh01', IJK=32,32,32, XB=0.0,1.0,0.0,1.0,0.0,1.0/


&REAC ID='Reaction1',
      FUEL='PROPANE',
      SOOT_YIELD=0.01/

&SURF ID='BURNER',
      COLOR='RED',
      HRRPUA=500.0,
      HEAT_TRANSFER_COEFFICIENT=0.0/

&OBST ID='Obstruction #1', XB=0.4,0.6,0.4,0.6,0.0,0.1, SURF_IDS='BURNER','INERT','INERT'/ 

&VENT ID='Mesh Vent: Mesh01 [XMIN]', SURF_ID='INERT', XB=0.0,0.0,0.0,1.0,0.0,1.0/ 
&VENT ID='Mesh Vent: Mesh01 [XMAX]', SURF_ID='INERT', XB=1.0,1.0,0.0,1.0,0.0,1.0/ 
&VENT ID='Mesh Vent: Mesh01 [YMIN]', SURF_ID='INERT', XB=0.0,1.0,0.0,0.0,0.0,1.0/ 
&VENT ID='Mesh Vent: Mesh01 [YMAX]', SURF_ID='INERT', XB=0.0,1.0,1.0,1.0,0.0,1.0/ 
&VENT ID='Mesh Vent: Mesh01 [ZMIN]', SURF_ID='INERT', XB=0.0,1.0,0.0,1.0,0.0,0.0/ 
&VENT ID='Mesh Vent: Mesh01 [ZMAX]', SURF_ID='OPEN', XB=0.0,1.0,0.0,1.0,1.0,1.0/ 

&SLCF QUANTITY='TEMPERATURE', ID='Y = 0.5 m: Temperature', PBY=0.5/
&SLCF QUANTITY='VELOCITY', VECTOR=.TRUE., ID='Y = 0.5 m: Velocity', PBY=0.5/
&SLCF QUANTITY='PRESSURE', ID='Y = 0.5 m: Pressure', PBY=0.5/


&TAIL /
