&TIME T_END=100/
&MISC SIMULATION_MODE='LES'/
&DUMP DT_PL3D=0.5, WRITE_XYZ=.TRUE., PLOT3D_QUANTITY='VOLUME FRACTION','HRRPUV','TEMPERATURE','VELOCITY','VISIBILITY', PLOT3D_SPEC_ID(1)='OXYGEN'/
&MESH ID='Mesh01', IJK=113,36,15, XB=9.44,32.013,1.161,8.433,0.0,3.0/

&VENT ID='Mesh Vent: Mesh01 [XMAX]', SURF_ID='OPEN', XB=32.013,32.013,1.161,8.433,0,3/ 
&VENT ID='Mesh Vent: Mesh01 [XMIN]', SURF_ID='OPEN', XB=9.44,9.44,1.161,8.433,0,3/ 
&VENT ID='Mesh Vent: Mesh01 [YMAX]', SURF_ID='OPEN', XB=9.44,32.013,8.433,8.433,0,3/ 
&VENT ID='Mesh Vent: Mesh01 [YMIN]', SURF_ID='OPEN', XB=9.44,32.013,1.161,1.161,0,3/ 


! ---- Furniture ----
&OBST ID='FURN_1', XB=9.055001,9.970001,5.328404,5.473411,0,2.085/
&OBST ID='FURN_2', XB=26.055,26.97,8.288404,8.433411,0,2.085/
&SPEC ID='SFPE WOOD_OAK_fuel', FORMULA='C1.0H1.7O0.72N0.001'/
&REAC ID='SFPE_WOOD_OAK', FYI='SFPE', FUEL='SFPE WOOD_OAK_fuel', CO_YIELD=0.004, SOOT_YIELD=0.015, HCN_YIELD=0, RADIATIVE_FRACTION=0.371/
&SURF ID='firesource', COLOR='RED', HRRPUA=1, RAMP_Q='firesource_RAMP_Q', TMP_FRONT=300/
&RAMP ID='firesource_RAMP_Q', T=1, F=0/
&RAMP ID='firesource_RAMP_Q', T=5, F=0.5/
&RAMP ID='firesource_RAMP_Q', T=10, F=1/
&RAMP ID='firesource_RAMP_Q', T=100, F=0.8/
&RAMP ID='firesource_RAMP_Q', T=200, F=1/
&OBST ID='FURN_3', XB=20.115,21.695,3.878408,5.958408,0,0.7, SURF_IDS='firesource','INERT','INERT'/

! ---- Room Floors ----
&OBST ID='FLOOR_1', XB=9.575,31.975,1.198408,8.298408,0,0.12/

! ---- Walls ----
&OBST ID='WALL', XB=9.5,9.575,1.160908,8.335908,0,2.5/
&OBST ID='WALL', XB=9.5375,32.0125,8.298408,8.373408,0,2.5/

&SLCF QUANTITY='TEMPERATURE', CELL_CENTERED=.TRUE., ID='temp', PBZ=1.8/
&SLCF QUANTITY='VOLUME FRACTION', SPEC_ID='CARBON DIOXIDE', CELL_CENTERED=.TRUE., ID='CO2', PBY=1.8/
&SLCF QUANTITY='VOLUME FRACTION', SPEC_ID='CARBON MONOXIDE', CELL_CENTERED=.TRUE., ID='CO', PBX=1.8/
&SLCF QUANTITY='VOLUME FRACTION', SPEC_ID='OXYGEN', CELL_CENTERED=.TRUE., ID='Oxyzen', PBZ=1.8/
&SLCF QUANTITY='VELOCITY', VECTOR=.TRUE., CELL_CENTERED=.TRUE., ID='velocity', PBZ=1.8/
&SLCF QUANTITY='VISIBILITY', CELL_CENTERED=.TRUE., ID='visibility', PBZ=1.8/

&TAIL /